
* ----------------------------------------------------------------------
************* XFAB ******** MODEL PARAMETERS ***************************
* ----------------------------------------------------------------------
* Simulator : HSPICE version: C-2009.3 32-BIT
* Device    : rmet4
* Model     : RC Wire Model
* Process   : XH018
* Extracted : XH018 Spec.
* Spec.     : PS_018_03
* Revision  : 1.0.1; 2008-03-31; 4CADC9A4
* ----------------------------------------------------------------------
*                        PARAMETERIZED
* ----------------------------------------------------------------------
* NOTE: Metal 4 resistor body
* NOTE: TNOM = 27 deg C
* 
* VARIABLES: w,l=device width and length
*
.model rmet4 r level=3
+ rsh=rsh_rmet4
+ w=10e-6
+ l=10e-6
+ dw=dw_rmet4
+ dlr=dlr_rmet4
+ tc1r=3.200e-03
+ tc2r=0.000e+00
* ----------------------------------------------------------------------
