
* ----------------------------------------------------------------------
************* XFAB ******** MODEL PARAMETERS ***************************
* ----------------------------------------------------------------------
* Simulator : HSPICE version: C-2009.3 32-BIT
* Device    : rsilpp1
* Model     : RC Wire Model
* Process   : XH018
* Extracted : XH018 Spec.
* Spec.     : PS_018_03
* Revision  : 1.0.1; 2008-03-31; C810D9A4
* ----------------------------------------------------------------------
*                        PARAMETERIZED
* ----------------------------------------------------------------------
* NOTE: Salicided p+ Polysilicon 1 resistor body
* NOTE: TNOM = 27 deg C
* 
* VARIABLES: w,l=device width and length
*
.model rsilpp1 r level=3
+ rsh=rsh_rsilpp1
+ w=10e-6
+ l=10e-6
+ dw=dw_rsilpp1
+ dlr=dlr_rsilpp1
+ tc1r=2.920e-03
+ tc2r=9.500e-07
* ----------------------------------------------------------------------
