
* ----------------------------------------------------------------------
************* XFAB ******** MODEL PARAMETERS ***************************
* ----------------------------------------------------------------------
* Simulator : HSPICE version: C-2009.3 32-BIT
* Device    : ped2_mos1
* Model     : BSIM3V3 version 3.24
* Process   : XH018
* Extracted : EF901013.05 02.07.2009 Moucha
* Spec.     : PS_018_03
* Revision  : 2.0.2; 2009-11-30; 8043CCA4
* ----------------------------------------------------------------------
*                        PARAMETERIZED
* ----------------------------------------------------------------------
* 
*
.model ped2_mos1.1 pmos
+ version=3.240e+00            level=49
+ lmin=0.93e-6                 lmax=0.95e-6
+ wmin=10.0e-6                 wmax=501e-6
+ mobmod=2.000e+00             capmod=3.000e+00
+ nqsmod=0                     binunit=1
+ tnom=2.700e+01
+ xl='xl_ped2'                 xw='0.000e+00'
+ lmlt=1                       wmlt=1
+ tox='tox_ped2'               toxm='tox_ped2'
+ wint=1.000e-08               lint=1.000e-08
+ wl=0.000e+00                 wln=1.000e+00                  ww=0.000e+00
+ wwn=1.000e+00                wwl=0.000e+00                  ll=0.000e+00
+ lln=1.000e+00                lw=0.000e+00                   lwn=1.000e+00
+ lwl=0.000e+00                llc=0.000e+00                  lwc=0.000e+00
+ lwlc=0.000e+00               wlc=0.000e+00                  wwc=0.000e+00
+ wwlc=0.000e+00               hdif=0.27e-6                   ldif=0
+ vth0='vth0_d_ped2+(-2.135)'            
+ k1=2.030e+00                 
+ k2=-1.839e-03                
+ k3=-2.063e+02                
+ wk3=-7.397e+01               
+ k3b=0.000e+00                
+ nlx=1.740e-07                
+ dvt0=2.200e+00               
+ dvt1=5.300e-01               
+ dvt2=-3.200e-02              
+ dvt0w=0.000e+00              
+ dvt1w=5.300e+06              
+ dvt2w=-3.200e-02             
+ u0='u0_m_ped2*(2.835e+02)'             
+ ua=2.420e-08                 
+ wua=2.101e-06                
+ ub=-1.071e-16                
+ wub=1.517e-14                
+ uc=-8.614e-09                
+ voff=-2.514e-01              
+ nch=1.500e+17
+ nfactor=1.707e+00            
+ cit=0.000e+00                
+ cdsc=2.400e-04               
+ cdscb=0.000e+00              
+ cdscd=0.000e+00              
+ xj=2.000e-07                 w0=2.500e-06
+ prwg=3.083e-02               
+ wprwg=-1.617e+00             
+ prwb=3.107e+00               
+ wr=9.935e-01                 
+ rdsw=1.304e+04               
+ a0=7.522e-01                 
+ wa0=-1.915e+00               
+ ags=0.000e+00                
+ a1=0.000e+00                 
+ a2=6.141e-02                 
+ b0=0.000e+00                 
+ b1=0.000e+00                 
+ vsat=3.495e+05               
+ keta=-3.352e-01              
+ dwg=-1.605e-05               
+ wdwg=2.900e-05               
+ dwb=1.505e-06                
+ alpha0=-2.954e-06            
+ beta0=3.000e+01              
+ pclm=2.405e+00               
+ pdiblc1=1.000e-08            
+ pdiblc2=3.967e-03            
+ pdiblcb=0.000e+00            
+ drout=5.600e-01              
+ pvag=0.000e+00               
+ pscbe1=5.480e+09             
+ pscbe2=8.000e-09             
+ delta=1.000e-02              
+ eta0=2.043e+00               
+ weta0=-1.386e+01             
+ etab=-7.000e-02              
+ dsub=8.823e-01               
+ alpha1=1.048e+00             
+ ckappa=4.000e-01             
+ cf=0.000e+00                 
+ clc=1.000e-07                
+ cle=6.000e-01                
+ dlc=1.000e-08                
+ dwc=1.000e-08                
+ noff=1.000e+00               
+ voffcv=0.000e+00             
+ acde=1.000e+00               
+ moin=1.500e+01               
+ elm=2.000e+00                
+ kt1=-9.265e-01               
+ kt1l=0.000e+00               
+ kt2=2.200e-02                
+ ute=-1.500e+00               
+ ua1=2.200e-08                
+ ub1=2.883e-16                
+ uc1=0.000e+00                
+ at=3.300e+04                 
+ prt=-9.102e+03               
+ noimod=2.000e+00
+ em=4.100e+07
+ ef=1.000e+00
+ af=1.000e+00                 kf=1.000e-17
+ noia=9.900e+18               noib=2.400e+03                 noic=1.400e-12
+ acm=13                       nj=1.040e+00                   xpart=0.000e+00
+ rsh=5.000e+00                js=7.500e-07                   jsw=3.000e-13
+ cgdo='0.000e+00'
+ cgdl='0.000e+00'
+ cgso='cgso_m_ped2*6.000e-11'
+ cgsl='cgso_m_ped2*3.000e-10'
+ cgbo=0.000e+00
+ cj='cj_ped2'                 cjsw='cjsw_ped2'               cjswg='cjswg_ped2'
+ tcj=0.000e+00                tcjsw=0.000e+00                tcjswg=0.000e+00
+ mj=5.150e-01                 mjsw=2.810e-01                 mjswg=2.810e-01
+ pb=6.000e-01                 pbsw=6.000e-01                 pbswg=6.000e-01
+ tpb=0.000e+00                tpbsw=0.000e+00                tpbswg=0.000e+00
+ xti=1.200e+00                tlev=0.000e+00                 tlevc=0.000e+00
*
