
* ----------------------------------------------------------------------
************* XFAB ******** MODEL PARAMETERS ***************************
* ----------------------------------------------------------------------
* Simulator : HSPICE version: C-2009.3 32-BIT
* Device    : jf_nmma
* Model     : njf
* Process   : XH018
* Extracted : XH018 Spec.
* Spec.     : PS_018_03
* Revision  : 1.0.1; 2008-03-31; 4C78F9A4
* ----------------------------------------------------------------------
*                        PARAMETERIZED
* ----------------------------------------------------------------------
* 
.subckt jf_nmma d g s w=1e-6 l=1e-6
j1 d g s jf_nmmamod
.model jf_nmmamod njf level=1
+ beta='1.4E-13*w/l'
+ bex=31.86
+ vto=-0.1
+ tcv=0.001
+ lambda=0.15
+ rs=10
+ rd=10
+ mj=0.5
+ pb=0.75
+ cgs=1E-15
+ cgd=1E-15
+ tlev=0
+ tlevc=0
+ n=1.5
+ is='3.50E-10*w+8e-14'
.ends jf_nmma
* ----------------------------------------------------------------------
