
* ----------------------------------------------------------------------
************* XFAB ******** MODEL PARAMETERS ***************************
* ----------------------------------------------------------------------
* Simulator : HSPICE version: C-2009.3 32-BIT
* Device    : jf_pmma
* Model     : pjf
* Process   : XH018
* Extracted : XH018 Spec.
* Spec.     : PS_018_03
* Revision  : 1.0.1; 2008-03-31; 58E8F9A4
* ----------------------------------------------------------------------
*                        PARAMETERIZED
* ----------------------------------------------------------------------
* 
.subckt jf_pmma d g s w=1e-6 l=1e-6
j1 d g s jf_pmmamod
.model jf_pmmamod pjf level=1
+ beta='2e-15*w/l'
+ bex=30
+ vto=-0.2
+ tcv=0.001
+ lambda=0.001
+ rs=10
+ rd=10
+ mj=0.5
+ pb=0.75
+ cgs=1E-15
+ cgd=1E-15
+ tlev=0
+ tlevc=0
+ n=2
+ is='6E-9*w+1e-14'
.ends jf_pmma
* ----------------------------------------------------------------------
