
* ----------------------------------------------------------------------
************* XFAB ******** MODEL PARAMETERS ***************************
* ----------------------------------------------------------------------
* Simulator : HSPICE version: C-2009.3 32-BIT
* Device    : rmettpl
* Model     : RC Wire Model
* Process   : XH018
* Extracted : XH018 Spec.
* Spec.     : PS_018_03
* Revision  : 2.0.1; 2009-10-16; A3ABDCA4
* ----------------------------------------------------------------------
*                        PARAMETERIZED
* ----------------------------------------------------------------------
* NOTE: Metal 1 resistor body
* NOTE: TNOM = 27 deg C
* 
* VARIABLES: w,l=device width and length
*
.model rmettpl r level=3
+ rsh=rsh_rmettpl
+ w=10e-6
+ l=10e-6
+ dw=dw_rmettpl
+ dlr=dlr_rmettpl
+ tc1r=3.500e-03
+ tc2r=0.000e+00
* ----------------------------------------------------------------------
