
* ----------------------------------------------------------------------
************* XFAB ******** MODEL PARAMETERS ***************************
* ----------------------------------------------------------------------
* Simulator : HSPICE version: C-2009.3 32-BIT
* Device    : rmettp
* Model     : RC Wire Model
* Process   : XH018
* Extracted : XH018 Spec.
* Spec.     : PS_018_03
* Revision  : 2.0.1; 2009-10-16; 3E59DDA4
* ----------------------------------------------------------------------
*                        PARAMETERIZED
* ----------------------------------------------------------------------
* NOTE: Metal 1 resistor body
* NOTE: TNOM = 27 deg C
* 
* VARIABLES: w,l=device width and length
*
.model rmettp r level=3
+ rsh=rsh_rmettp
+ w=10e-6
+ l=10e-6
+ dw=dw_rmettp
+ dlr=dlr_rmettp
+ tc1r=3.200e-03
+ tc2r=0.000e+00
* ----------------------------------------------------------------------
