
* ----------------------------------------------------------------------
************* XFAB ******** MODEL PARAMETERS ***************************
* ----------------------------------------------------------------------
* Simulator : HSPICE version: C-2009.3 32-BIT
* Device    : rmet3
* Model     : RC Wire Model
* Process   : XH018
* Extracted : XH018 Spec.
* Spec.     : PS_018_03
* Revision  : 1.0.1; 2008-03-31; E4ADC9A4
* ----------------------------------------------------------------------
*                        PARAMETERIZED
* ----------------------------------------------------------------------
* NOTE: Metal 3 resistor body
* NOTE: TNOM = 27 deg C
* 
* VARIABLES: w,l=device width and length
*
.model rmet3 r level=3
+ rsh=rsh_rmet3
+ w=10e-6
+ l=10e-6
+ dw=dw_rmet3
+ dlr=dlr_rmet3
+ tc1r=3.200e-03
+ tc2r=0.000e+00
* ----------------------------------------------------------------------
