
* ----------------------------------------------------------------------
************* XFAB ******** MODEL PARAMETERS ***************************
* ----------------------------------------------------------------------
* Simulator : HSPICE version: C-2009.3 32-BIT
* Device    : rsilnp1
* Model     : RC Wire Model
* Process   : XH018
* Extracted : XH018 Spec.
* Spec.     : PS_018_03
* Revision  : 1.0.1; 2008-03-31; 9500D9A4
* ----------------------------------------------------------------------
*                        PARAMETERIZED
* ----------------------------------------------------------------------
* NOTE: Silicided Polysilicon 1 resistor body
* NOTE: TNOM = 27 deg C
* 
* VARIABLES: w,l=device width and length
*
.model rsilnp1 r level=3
+ rsh=rsh_rsilnp1
+ w=10e-6
+ l=10e-6
+ dw=dw_rsilnp1
+ dlr=dlr_rsilnp1
+ tc1r=1.000e-03
+ tc2r=0.000e+00
* ----------------------------------------------------------------------
