
* ----------------------------------------------------------------------
************* XFAB ******** MODEL PARAMETERS ***************************
* ----------------------------------------------------------------------
* Simulator : HSPICE version: C-2009.3 32-BIT
* Device    : nedia_mos2
* Model     : BSIM3V3 version 3.24
* Process   : XH018
* Extracted : EF905000.22 2010-03-24 Moucha
* Spec.     : PS_018_03
* Revision  : 2.0.3; 2010-03-25; 9261BAB4
* ----------------------------------------------------------------------
*                        PARAMETERIZED
* ----------------------------------------------------------------------
* 
*
.model nedia_mos2.1 nmos
+ version=3.240e+00            level=49
+ lmin=1.20e-6                 lmax=1.30e-6
+ wmin=10.0e-6                 wmax=501e-6
+ mobmod=2.000e+00             capmod=3.000e+00
+ nqsmod=0                     binunit=1
+ tnom=2.700e+01
+ xl='xl_nedia'                xw='0.000e+00'
+ lmlt=1                       wmlt=1
+ tox='tox_nedia'              toxm='tox_nedia'
+ wint=1.000e-08               lint=1.000e-08
+ wl=0.000e+00                 wln=1.000e+00                  ww=0.000e+00
+ wwn=1.000e+00                wwl=0.000e+00                  ll=0.000e+00
+ lln=1.000e+00                lw=0.000e+00                   lwn=1.000e+00
+ lwl=0.000e+00                llc=0.000e+00                  lwc=0.000e+00
+ lwlc=0.000e+00               wlc=0.000e+00                  wwc=0.000e+00
+ wwlc=0.000e+00               hdif=0.27e-6                   ldif=0
+ vth0='vth0_d_nedia+(-5.549e+00)'        
+ k1=8.000e-01                  
+ k2=-1.839e-03                 
+ k3=1.691e+03                  
+ k3b=-5.000e+01                
+ nlx=1.740e-07                 
+ dvt0=2.200e+00                
+ dvt1=5.300e-01                
+ dvt2=-3.200e-02               
+ dvt0w=0.000e+00               
+ dvt1w=5.300e+06               
+ dvt2w=-3.200e-02              
+ u0=4.970e+02                  
+ ua=2.250e-09                  
+ ub=5.870e-19                  
+ uc=1.000e-08                  
+ voff=-2.425e-01               
+ nch=2.000e+16
+ nfactor=2.068e+00             
+ cit=0.000e+00                 
+ cdsc=2.400e-04                
+ cdscb=0.000e+00               
+ cdscd=0.000e+00               
+ xj=2.000e-07                 w0=2.500e-06
+ prwg=2.926e-02                
+ prwb=0                        
+ wr=8.220e-01                  
+ rdsw=5.443e+02                
+ a0=1.000e-12                  
+ ags=0.000e+00                 
+ a1=0.000e+00                  
+ a2=8.334e-01                  
+ b0=7.222e-03                  
+ b1=7.408e-01                  
+ vsat=1.917e+03                
+ keta=1.000e-01                
+ dwg=-7.718e-06                
+ dwb=0                         
+ alpha0=-8.160e-07             
+ beta0=5.200e+01               
+ pclm=1.300e+00                
+ pdiblc1=1.001e-08             
+ pdiblc2=1.000e-08             
+ pdiblcb=0.000e+00             
+ drout=5.600e-01               
+ pvag=0.000e+00                
+ pscbe1=5.382e+06              
+ pscbe2=3.529e-06              
+ delta=1.000e-02               
+ eta0=2.989e-02                
+ etab=-7.000e-02               
+ dsub=3.919e-01                
+ alpha1=4.438e-01              
+ ckappa=4.000e-01              
+ cf=0.000e+00                  
+ clc=1.000e-07                 
+ cle=6.000e-01                 
+ dlc=1.000e-08                 
+ dwc=1.000e-08                 
+ noff=1.000e+00                
+ voffcv=0.000e+00              
+ acde=1.000e+00                
+ moin=1.500e+01                
+ elm=2.000e+00                 
+ kt1=-1.100e-01                
+ kt1l=0.000e+00                
+ kt2=2.200e-02                 
+ ute=-1.500e+00                
+ ua1=4.310e-09                 
+ ub1=-7.610e-18                
+ uc1=0.000e+00                 
+ at=0.000e+00                  
+ prt=-1.228e+03                
+ noimod=2.000e+00
+ em=4.100e+07
+ ef=1.000e+00
+ af=1.000e+00                 kf=0.000e+00
+ noia=1.000e+20               noib=5.000e+04                 noic=-1.400e-12
+ acm=13                       nj=1.081e+00                   xpart=0.000e+00
+ rsh=5.000e+00                js=1.475e-05                   jsw=2.430e-11
+ cgdo='cgdo_m_nedia*1.000e-12'
+ cgdl='cgdo_m_nedia*4.750e-10'
+ cgso='0.000e+00'
+ cgsl='0.000e+00'
+ cgbo=0.000e+00
+ cj='cj_nedia'                cjsw='cjsw_nedia'              cjswg='cjswg_nedia'
+ tcj=0.000e+00                tcjsw=0.000e+00                tcjswg=0.000e+00
+ mj=6.900e-01                 mjsw=2.700e-01                 mjswg=2.700e-01
+ pb=6.000e-01                 pbsw=6.000e-01                 pbswg=6.000e-01
+ tpb=0.000e+00                tpbsw=0.000e+00                tpbswg=0.000e+00
+ xti=1.014e+00                tlev=0.000e+00                 tlevc=0.000e+00
*
