* ----------------------------------------------------------------------
************* XFAB ******** MODEL PARAMETERS ***************************
* ----------------------------------------------------------------------
* Simulator : HSPICE, Z-2007.03-SP1
* Device    : rm3
* Model     : RESISTOR
* Process   : XH018
* Extracted : XH018 Spec.
* Spec.     : PS_018_03
* Revision  : 1.0.1; 2008-03-31
* ----------------------------------------------------------------------
*                        TYPICAL CONDITION
* ----------------------------------------------------------------------
* NOTE: Metal 3 resistor
* NOTE: TNOM = 27 deg C
* VARIABLES: l,w=device length and width
*
.subckt rm3 a b  l=10e-6 w=10e-6 par1=1
r1 a b  rmet3 l=l w=w
.ends rm3
* ----------------------------------------------------------------------
