
* ----------------------------------------------------------------------
************* XFAB ******** MODEL PARAMETERS ***************************
* ----------------------------------------------------------------------
* Simulator : HSPICE version: C-2009.3 32-BIT
* Device    : nedi_mos1
* Model     : BSIM3V3 version 3.24
* Process   : XH018
* Extracted : EF807019.03 2010-03-24 Moucha
* Spec.     : PS_018_03
* Revision  : 2.0.3; 2010-03-25; A031BAB4
* ----------------------------------------------------------------------
*                        PARAMETERIZED
* ----------------------------------------------------------------------
* 
*
.model nedi_mos1.1 nmos
+ version=3.240e+00            level=49
+ lmin=0.64e-6                 lmax=0.66e-6
+ wmin=10.0e-6                 wmax=501e-6
+ mobmod=2.000e+00             capmod=3.000e+00
+ nqsmod=0                     binunit=1
+ tnom=2.700e+01
+ xl='xl_nedi'                 xw='0.000e+00'
+ lmlt=1                       wmlt=1
+ tox='tox_nedi'               toxm='tox_nedi'
+ wint=1.000e-08               lint=1.000e-08
+ wl=0.000e+00                 wln=1.000e+00                  ww=0.000e+00
+ wwn=1.000e+00                wwl=0.000e+00                  ll=0.000e+00
+ lln=1.000e+00                lw=0.000e+00                   lwn=1.000e+00
+ lwl=0.000e+00                llc=0.000e+00                  lwc=0.000e+00
+ lwlc=0.000e+00               wlc=0.000e+00                  wwc=0.000e+00
+ wwlc=0.000e+00               hdif=0.27e-6                   ldif=0
+ vth0='vth0_d_nedi+(1.704e+00)'          
+ k1=2.030e+00                  
+ k2=-1.839e-03                 
+ k3=-1.063e+02                 
+ wk3=5.816e+02                 
+ k3b=-5.000e+01                
+ nlx=1.740e-07                 
+ dvt0=2.200e+00                
+ dvt1=5.300e-01                
+ dvt2=-3.200e-02               
+ dvt0w=0.000e+00               
+ dvt1w=5.300e+06               
+ dvt2w=-3.200e-02              
+ u0='u0_m_nedi*(4.462e+02)'              
+ ua=2.169e-08                  
+ wua=-4.282e-08                
+ ub=-5.165e-19                 
+ wub=4.426e-16                 
+ uc=-8.614e-09                 
+ voff=-2.347e-01               
+ nch=2.000e+16
+ nfactor=1.784e+00             
+ cit=0.000e+00                 
+ cdsc=2.400e-04                
+ cdscb=0.000e+00               
+ cdscd=0.000e+00               
+ xj=2.000e-07                 w0=2.500e-06
+ prwg=7.848e-02                
+ prwb=3.107e+00                
+ wr=1.010e+00                  
+ rdsw=6.640e+02                
+ wrdsw=-5.395e+03              
+ a0=1.491e+00                  
+ ags=0.000e+00                 
+ a1=0.000e+00                  
+ a2=1.144e-02                  
+ b0=1.050e-06                  
+ b1=6.628e-02                  
+ vsat=4.596e+06                
+ keta=-3.352e-01               
+ dwg=-4.735e-07                
+ wdwg=-2.084e-06               
+ dwb=1.505e-06                 
+ alpha0=-2.954e-06             
+ beta0=5.012e+01               
+ pclm=4.407e+00                
+ pdiblc1=1.000e-08             
+ pdiblc2=1.081e-08             
+ pdiblcb=0.000e+00             
+ drout=5.600e-01               
+ pvag=0.000e+00                
+ pscbe1=5.480e+09              
+ pscbe2=8.000e-09              
+ delta=1.000e-02               
+ eta0=7.744e-03                
+ etab=-9.528e-02               
+ dsub=6.642e-01                
+ alpha1=1.048e+00              
+ ckappa=4.000e-01              
+ cf=0.000e+00                  
+ clc=1.000e-07                 
+ cle=6.000e-01                 
+ dlc=1.000e-08                 
+ dwc=1.000e-08                 
+ noff=1.000e+00                
+ voffcv=0.000e+00              
+ acde=1.000e+00                
+ moin=1.500e+01                
+ elm=2.000e+00                 
+ kt1=-8.881e-01                
+ kt1l=0.000e+00                
+ kt2=2.200e-02                 
+ ute=-1.600e+00                
+ ua1=-7.000e-10                
+ ub1=-4.508e-18                
+ uc1=0.000e+00                 
+ at=3.300e+04                  
+ prt=4.000e+02                 
+ noimod=2.000e+00
+ em=4.100e+07
+ ef=1.000e+00
+ af=1.000e+00                 kf=0.000e+00
+ noia=1.000e+20               noib=5.000e+04                 noic=-1.400e-12
+ acm=13                       nj=1.122e+00                   xpart=0.000e+00
+ rsh=5.000e+00                js=1.442e-05                   jsw=2.433e-11
+ cgdo='0.000e+00'
+ cgdl='0.000e+00'
+ cgso='cgso_m_nedi*6.000e-11'
+ cgsl='cgso_m_nedi*4.150e-10'
+ cgbo=0.000e+00
+ cj='cj_nedi'                 cjsw='cjsw_nedi'               cjswg='cjswg_nedi'
+ tcj=0.000e+00                tcjsw=0.000e+00                tcjswg=0.000e+00
+ mj=6.900e-01                 mjsw=2.700e-01                 mjswg=2.700e-01
+ pb=6.000e-01                 pbsw=6.000e-01                 pbswg=6.000e-01
+ tpb=0.000e+00                tpbsw=0.000e+00                tpbswg=0.000e+00
+ xti=1.014e+00                tlev=0.000e+00                 tlevc=0.000e+00
*
